Circuit: * C:\Repositories\Alpha-Electrical\PCBs\JukkaInterface2(Amaranth 30-0008)\Simulations\JukkaRev2_VReg1B(012720).asc

u9:c6: both pins shorted together -- ignoring.
Direct Newton iteration failed to find .op point.  (Use ".option noopiter" to skip.)
Starting Gmin stepping
Gmin = 10
Gmin = 1.07374
Gmin = 0.115292
Gmin = 0.0123794
Gmin = 0.00132923
Gmin = 0.000142725
Gmin = 1.5325e-005
Gmin = 1.6455e-006
Gmin = 1.76685e-007
Gmin = 1.89714e-008
Gmin = 2.03704e-009
Gmin = 2.18725e-010
Gmin = 2.34854e-011
Gmin = 2.52173e-012
Gmin = 2.70769e-013
Gmin = 0
Gmin stepping succeeded in finding the operating point.

Ignoring empty pin current: Ix(u9:2)
Ignoring empty pin current: Ix(u10:1)
Ignoring empty pin current: Ix(u9:2)
Ignoring empty pin current: Ix(u10:1)

Date: Fri Feb 07 09:54:50 2020
Total elapsed time: 0.125 seconds.

tnom = 27
temp = 27
method = modified trap
totiter = 3747
traniter = 3393
tranpoints = 1417
accept = 1318
rejected = 99
matrix size = 31
fillins = 11
solver = Normal
Matrix Compiler1: 2.21 KB object code size  0.5/0.2/[0.1]
Matrix Compiler2: 3.07 KB object code size  0.4/0.3/[0.2]

