Circuit: * C:\Repositories\Alpha-Electrical\PCBs\JukkaInterface(Alpenglow 30-0005)\Revision2\Simulations\JukkaRev2_VReg1A(012720).asc

u9:c6: both pins shorted together -- ignoring.
WARNING: Less than two connections to node VCC.  This node is used by V1.
WARNING: Less than two connections to node CMDVOLTAGEPLUS.  This node is used by V3.
WARNING: Less than two connections to node CMDVOLTAGEMINUS.  This node is used by V4.
Direct Newton iteration failed to find .op point.  (Use ".option noopiter" to skip.)
Starting Gmin stepping
Increasing initial diagonal Gmin to 100
Increasing initial diagonal Gmin to 1000
Increasing initial diagonal Gmin to 10000
Increasing initial diagonal Gmin to 100000
Gmin = 100000
Gmin = 10737.4
Gmin = 1152.92
Gmin = 123.794
Gmin = 13.2923
Gmin = 1.42725
Gmin = 0.15325
Gmin = 0.016455
Gmin = 0.00176685
Gmin = 0.000189714
Gmin = 2.03704e-005
Gmin = 2.18725e-006
vernier = 0.5
vernier = 0.25
vernier = 0.125
Gmin = 9.95442e-007
vernier = 0.0625
vernier = 0.03125
vernier = 0.015625
Gmin = 9.43045e-007
vernier = 0.0078125
vernier = 0.00390625
vernier = 0.00195313
Gmin = 9.4258e-007
vernier = 0.00260417
vernier = 0.00347222
Gmin = 9.35653e-007
vernier = 0.00462963
vernier = 0.00617283
Gmin = 9.24714e-007
vernier = 0.00823044
Gmin = 9.07764e-007
vernier = 0.0109739
vernier = 0.0146319
Gmin = 8.80016e-007
vernier = 0.0195092
vernier = 0.0260122
Gmin = 8.3755e-007
vernier = 0.034683
Gmin = 7.74915e-007
vernier = 0.046244
vernier = 0.0616586
Gmin = 6.80343e-007
vernier = 0.0822114
vernier = 0.109615
Gmin = 5.53281e-007
vernier = 0.146154
Gmin = 4.00376e-007
vernier = 0.194871
vernier = 0.259828
Gmin = 2.33985e-007
vernier = 0.346438
vernier = 0.173219
vernier = 0.0866095
Gmin = 1.7805e-007
vernier = 0.115479
vernier = 0.153972
Gmin = 1.33341e-007
vernier = 0.205296
Gmin = 8.49045e-008
vernier = 0.273728
vernier = 0.364971
Gmin = 4.02498e-008
vernier = 0.486628
vernier = 0.648837
Gmin = 1.25658e-008
vernier = 0.865116
Gmin = 2.12743e-009
vernier = 1
Gmin = 2.28431e-010
Gmin = 2.45276e-011
Gmin = 2.63363e-012
Gmin = 2.82784e-013
Gmin = 0
Gmin stepping succeeded in finding the operating point.

Ignoring empty pin current: Ix(u9:2)
Ignoring empty pin current: Ix(u9:2)

Date: Mon Jan 27 15:36:36 2020
Total elapsed time: 0.131 seconds.

tnom = 27
temp = 27
method = modified trap
totiter = 4648
traniter = 2088
tranpoints = 1045
accept = 1045
rejected = 0
matrix size = 26
fillins = 8
solver = Normal
Matrix Compiler1: 2.53 KB object code size  0.4/0.2/[0.1]
Matrix Compiler2: 2.28 KB object code size  0.2/0.3/[0.2]

