Circuit: * C:\Repositories\Alpha-Electrical\PCBs\JukkaInterface2(Amaranth 30-0008)\Simulations\JukkaRev2_Model2E(012220).asc

Early termination of direct N-R iteration.
Direct Newton iteration failed to find .op point.  (Use ".option noopiter" to skip.)
Starting Gmin stepping
Gmin = 10
Gmin = 1.07374
Gmin = 0.115292
Gmin = 0.0123794
Gmin = 0.00132923
Gmin = 0.000142725
Gmin = 1.5325e-005
Gmin = 1.6455e-006
Gmin = 1.76685e-007
Gmin = 1.89714e-008
vernier = 0.5
vernier = 0.25
vernier = 0.125
vernier = 0.0625
vernier = 0.03125
vernier = 0.015625
vernier = 0.0078125
Gmin = 1.51475e-008
vernier = 0.0104167
Gmin = 1.4797e-008
vernier = 0.0138889
vernier = 0.0185185
Gmin = 1.42272e-008
vernier = 0.0246913
vernier = 0.0329218
Gmin = 1.33645e-008
vernier = 0.0438957
Gmin = 1.21136e-008
vernier = 0.0585276
vernier = 0.0780367
Gmin = 1.02768e-008
vernier = 0.104049
vernier = 0.138732
vernier = 0.0693659
Gmin = 8.47539e-009
vernier = 0.034683
vernier = 0.0173415
vernier = 0.00867074
vernier = 0.00433537
vernier = 0.00216769
vernier = 0.00108384
vernier = 0.000541921
vernier = 0.000406441
Gmin = 0
Gmin stepping failed

Starting source stepping with srcstepmethod=0
Source Step = 3.0303%
vernier = 0.25
Source Step = 0.772372%
Source Step = 0.801965%
Source Step = 0.831558%
Source Step = 0.861151%
Source Step = 0.890743%
vernier = 0.00146484
Source Step = 0.924775%
Source Step = 0.969164%
Source Step = 1.01355%
Source Step = 1.05794%
Source Step = 1.10233%
vernier = 0.00219727
Source Step = 1.15116%
Source Step = 1.21774%
Source Step = 1.28433%
Source Step = 1.35091%
Source Step = 1.4175%
vernier = 0.0032959
Source Step = 1.48741%
Source Step = 1.58728%
Source Step = 1.68716%
Source Step = 1.78704%
Source Step = 1.88691%
Source Step = 1.98679%
vernier = 0.00494385
Source Step = 2.1366%
Source Step = 2.28641%
Source Step = 2.43623%
Source Step = 2.58604%
Source Step = 2.73585%
vernier = 0.00741577
Source Step = 2.95308%
Source Step = 3.1778%
Source Step = 3.40253%
Source Step = 3.62725%
Source Step = 3.85197%
vernier = 0.0111237
Source Step = 4.16657%
Source Step = 4.50365%
Source Step = 4.84074%
Source Step = 5.17782%
Source Step = 5.5149%
vernier = 0.0166855
Source Step = 5.96995%
Source Step = 6.47558%
Source Step = 6.9812%
Source Step = 7.48682%
Source Step = 7.99244%
vernier = 0.0250282
Source Step = 8.64975%
Source Step = 9.40818%
Source Step = 10.1666%
Source Step = 10.925%
Source Step = 11.6835%
vernier = 0.0375423
Source Step = 12.6315%
Source Step = 13.7692%
Source Step = 14.9068%
Source Step = 16.0444%
Source Step = 17.1821%
vernier = 0.0563135
Source Step = 18.5473%
Source Step = 20.2537%
Source Step = 21.9602%
Source Step = 23.6667%
Source Step = 25.3732%
vernier = 0.0844703
Source Step = 27.3356%
Source Step = 29.8953%
Source Step = 32.455%
Source Step = 35.0147%
Source Step = 37.5744%
vernier = 0.126705
Source Step = 40.3901%
Source Step = 44.2296%
Source Step = 48.0692%
Source Step = 51.9088%
Source Step = 55.7483%
vernier = 0.190058
Source Step = 59.7799%
Source Step = 65.5392%
Source Step = 71.2985%
Source Step = 77.0579%
Source Step = 82.8172%
Source Step = 88.5765%
vernier = 0.285087
Source Step = 97.2155%
Source Step = 100%
Source stepping succeeded in finding the operating point.


Date: Fri Feb 07 10:18:16 2020
Total elapsed time: 2.908 seconds.

tnom = 27
temp = 27
method = modified trap
totiter = 8254
traniter = 2096
tranpoints = 1049
accept = 1049
rejected = 0
matrix size = 142
fillins = 519
solver = Normal
Thread vector: 28.0/18.0[8] 6.3/4.0[8] 7.5/3.8[8] 0.8/1.6[1]  2592/500
Matrix Compiler1: 84.87 KB object code size  10.3/5.4/[2.6]
Matrix Compiler2: 23.76 KB object code size  3.3/5.9/[0.9]

