Circuit: * C:\Repositories\Alpha-Electrical\PCBs\JukkaInterface(Alpenglow 30-0005)\Revision2\Simulations\JukkaRev2_Model2F(012220).asc

u9:c6: both pins shorted together -- ignoring.
Early termination of direct N-R iteration.
Direct Newton iteration failed to find .op point.  (Use ".option noopiter" to skip.)
Starting Gmin stepping
Gmin = 10
Gmin = 1.07374
Gmin = 0.115292
Gmin = 0.0123794
Gmin = 0.00132923
Gmin = 0.000142725
Gmin = 1.5325e-005
Gmin = 1.6455e-006
Gmin = 1.76685e-007
Gmin = 1.89714e-008
Gmin = 2.03704e-009
Gmin = 2.18725e-010
Gmin = 2.34854e-011
Gmin = 2.52173e-012
Gmin = 2.70769e-013
Gmin = 0
Gmin stepping succeeded in finding the operating point.

Ignoring empty pin current: Ix(u9:2)
Ignoring empty pin current: Ix(u10:1)
Ignoring empty pin current: Ix(u9:2)
Ignoring empty pin current: Ix(u10:1)

Date: Tue Jan 28 08:02:30 2020
Total elapsed time: 1.065 seconds.

tnom = 27
temp = 27
method = modified trap
totiter = 15294
traniter = 14985
tranpoints = 6395
accept = 5096
rejected = 1299
matrix size = 175
fillins = 123
solver = Normal
Thread vector: 31.3/19.2[10] 24.1/7.4[10] 14.5/4.8[10] 0.9/2.3[1]  2592/500
Matrix Compiler1: 28.92 KB object code size  12.3/6.6/[2.9]
Matrix Compiler2: 20.22 KB object code size  5.8/6.5/[1.3]

