Circuit: * C:\Repositories\Alpha-Electrical\PCBs\JukkaInterface(Alpenglow 30-0005)\Revision2\Simulations\JukkaRev2_Model2B(012220).asc

WARNING: Less than two connections to node CMDVOLTAGEPLUS.  This node is used by V3.
Direct Newton iteration failed to find .op point.  (Use ".option noopiter" to skip.)
Starting Gmin stepping
Gmin = 10
Gmin = 1.07374
vernier = 0.5
vernier = 0.25
vernier = 0.125
Gmin = 1.08408
vernier = 0.0625
vernier = 0.03125
vernier = 0.015625
Gmin = 1.06293
vernier = 0.0208333
vernier = 0.0104167
Gmin = 1.03565
vernier = 0.00520833
vernier = 0.00694444
vernier = 0.00347222
Gmin = 1.02804
vernier = 0.00462963
vernier = 0.00231481
Gmin = 1.02211
vernier = 0.00308642
vernier = 0.00154321
Gmin = 1.01798
vernier = 0.00205761
vernier = 0.00102881
Gmin = 1.01485
vernier = 0.00137174
vernier = 0.00068587
Gmin = 1.01267
vernier = 0.000914493
vernier = 0.00121932
vernier = 0.000609662
Gmin = 1.01094
vernier = 0.000812882
vernier = 0.000406441
Gmin = 1.00986
vernier = 0.000541921
vernier = 0.000722562
vernier = 0.000541921
Gmin = 1.00884
vernier = 0.000722562
vernier = 0.000541921
vernier = 0.000406441
Gmin = 1.00805
vernier = 0.000541921
vernier = 0.000406441
Gmin = 1.00723
vernier = 0.000541921
vernier = 0.000406441
Gmin = 0
Gmin stepping failed

Starting source stepping with srcstepmethod=0
Source Step = 3.0303%
Source Step = 4.54545%
Source Step = 6.43939%
Source Step = 8.33333%
Source Step = 10.2273%
Source Step = 12.1212%
vernier = 0.09375
Source Step = 14.678%
Source Step = 17.5189%
Source Step = 20.3598%
Source Step = 23.2008%
Source Step = 26.0417%
vernier = 0.140625
Source Step = 29.7348%
Source Step = 33.9962%
Source Step = 38.2576%
Source Step = 42.5189%
Source Step = 46.7803%
vernier = 0.210938
Source Step = 52.107%
Source Step = 58.4991%
Source Step = 64.8911%
Source Step = 71.2831%
Source Step = 77.6752%
vernier = 0.316406
Source Step = 85.3456%
Source Step = 94.9337%
Source stepping succeeded in finding the operating point.


Date: Mon Jan 27 06:44:57 2020
Total elapsed time: 1.155 seconds.

tnom = 27
temp = 27
method = modified trap
totiter = 12981
traniter = 2096
tranpoints = 1049
accept = 1049
rejected = 0
matrix size = 58
fillins = 105
solver = Normal
Thread vector: 12.9/9.8[3] 3.9/3.3[3] 4.2/3.5[3] 0.2/1.2[1]  2592/500
Matrix Compiler1: 7.87 KB object code size  1.8/0.8/[0.4]
Matrix Compiler2: 7.57 KB object code size  1.1/1.2/[0.4]

